
**** 05/12/25 12:17:23 ******* PSpice Lite (March 2016) ******* ID# 10813 ****

 ** Profile: "SCHEMATIC1-ps"  [ C:\Users\feria\Desktop\Project\Circuits\OrCAD\Project circuit-PSpiceFiles\SCHEMATIC1\ps.sim ] 


 ****     CIRCUIT DESCRIPTION


******************************************************************************




** Creating circuit file "ps.cir" 
** WARNING: THIS AUTOMATICALLY GENERATED FILE MAY BE OVERWRITTEN BY SUBSEQUENT SIMULATIONS

*Libraries: 
* Profile Libraries :
* Local Libraries :
* From [PSPICE NETLIST] section of C:\Users\feria\AppData\Roaming\SPB_Data\cdssetup\OrCAD_PSpice\17.2.0\PSpice.ini file:
.lib "nomd.lib" 

*Analysis directives: 
.AC DEC 10000 500 100
------------------$
ERROR(ORPSIM-16103): Invalid value
.OPTIONS ADVCONV
.PROBE64 V(alias(*)) I(alias(*)) W(alias(*)) D(alias(*)) NOISE(alias(*)) 
.INC "..\SCHEMATIC1.net" 



**** INCLUDING SCHEMATIC1.net ****
* source PROJECT CIRCUIT
V_V12         0 N08907 10Vdc
R_R2         N02321 N02359  10k  
V_V11         N03332 0 10Vdc
C_C3         0 N02359  10n  
V_V9         0 N03101 10Vdc
V_V10         0 N06321 10Vdc
R_R3         N03421 N03491  10k  
V_V7         N091610 0 10Vdc
R_R6         0 N02568  10k  
R_R5         N02629 N03421  10k  
C_C4         N02321 N02568  1n  
R_R4         N02875 N03421  10k  
V_V8         N03786 0 10Vdc
X_U5         N02359 N02875 N091610 N03101 N02875 LM741
X_U6         0 N03421 N03786 N08907 N03491 LM741
X_U7         N02568 N02629 N03332 N06321 N02629 LM741
V_V13         N02321 0 DC 0Vdc AC 1Vac 

**** RESUMING ps.cir ****
.END
